<?xml version="1.0" encoding="UTF-8"?>

<!-- generated on 2021-07-07 15:02:21 by Eclipse SUMO GUI Version 1.9.2
<configuration xmlns:xsi="http://www.w3.org/2001/XMLSchema-instance" xsi:noNamespaceSchemaLocation="http://sumo.dlr.de/xsd/sumoConfiguration.xsd">

    <input>
        <net-file value="./scenarios/interactive/NGSIM/US101/USA_US101-11_2_I-1-1/USA_US101-11_2_I-1-1.net.xml"/>
        <route-files value="./scenarios/interactive/NGSIM/US101/USA_US101-11_2_I-1-1/USA_US101-11_2_I-1-1.vehicles.rou.xml,./scenarios/interactive/NGSIM/US101/USA_US101-11_2_I-1-1/USA_US101-11_2_I-1-1.pedestrians.rou.xml"/>
        <additional-files value="./scenarios/interactive/NGSIM/US101/USA_US101-11_2_I-1-1/USA_US101-11_2_I-1-1.add.xml"/>
    </input>

    <output>
        <lanechange-output value="./scenarios/interactive/NGSIM/US101/USA_US101-11_2_I-1-1/output_lanechange.txt"/>
    </output>

    <time>
        <begin value="0"/>
        <step-length value="0.1"/>
    </time>

    <processing>
        <lateral-resolution value="0.5"/>
        <ignore-route-errors value="true"/>
        <time-to-teleport value="-1"/>
        <lanechange.duration value="0"/>
    </processing>

    <report>
        <verbose value="true"/>
        <no-step-log value="true"/>
    </report>

    <traci_server>
        <remote-port value="47213"/>
    </traci_server>

    <random_number>
        <seed value="1234"/>
    </random_number>

    <gui_only>
        <tracker-interval value="0.1"/>
    </gui_only>

</configuration>
-->

<lanechanges>
    <change id="116" type="passenger@116" time="2.20" from="14_3" to="14_2" dir="-1" speed="19.67" pos="37.82" reason="strategic|urgent" leaderGap="54.27" leaderSecureGap="22.73" leaderSpeed="18.44" followerGap="None" followerSecureGap="None" followerSpeed="None" origLeaderGap="39.18" origLeaderSecureGap="38.81" origLeaderSpeed="9.60" latGap="None"/>
    <change id="115" type="passenger@115" time="4.10" from="14_3" to="14_2" dir="-1" speed="16.54" pos="119.00" reason="strategic|urgent" leaderGap="11.08" leaderSecureGap="5.55" leaderSpeed="21.02" followerGap="42.05" followerSecureGap="18.91" followerSpeed="17.28" origLeaderGap="73.87" origLeaderSecureGap="0.00" origLeaderSpeed="26.96" latGap="None"/>
    <change id="116" type="passenger@116" time="5.30" from="14_2" to="14_1" dir="-1" speed="17.56" pos="92.73" reason="strategic|urgent" leaderGap="52.52" leaderSecureGap="1.20" leaderSpeed="23.63" followerGap="None" followerSecureGap="None" followerSpeed="None" origLeaderGap="41.33" origLeaderSecureGap="17.34" origLeaderSpeed="17.65" latGap="None"/>
    <change id="115" type="passenger@115" time="7.70" from="14_2" to="14_1" dir="-1" speed="21.63" pos="186.42" reason="strategic|urgent" leaderGap="None" leaderSecureGap="None" leaderSpeed="None" followerGap="None" followerSecureGap="None" followerSpeed="None" origLeaderGap="None" origLeaderSecureGap="None" origLeaderSpeed="None" latGap="None"/>
    <change id="116" type="passenger@116" time="8.40" from="14_1" to="14_0" dir="-1" speed="22.43" pos="157.53" reason="strategic|urgent" leaderGap="None" leaderSecureGap="None" leaderSpeed="None" followerGap="None" followerSecureGap="None" followerSpeed="None" origLeaderGap="37.15" origLeaderSecureGap="38.09" origLeaderSpeed="16.24" latGap="None"/>
    <change id="115" type="passenger@115" time="12.10" from="14_1" to="14_0" dir="-1" speed="0.00" pos="210.38" reason="strategic|urgent" leaderGap="None" leaderSecureGap="None" leaderSpeed="None" followerGap="5.66" followerSecureGap="5.64" followerSpeed="4.51" origLeaderGap="None" origLeaderSecureGap="None" origLeaderSpeed="None" latGap="None"/>
</lanechanges>
