<?xml version="1.0" encoding="UTF-8"?>

<!-- generated on 2021-06-28 22:59:45 by Eclipse SUMO GUI Version 1.9.2
<configuration xmlns:xsi="http://www.w3.org/2001/XMLSchema-instance" xsi:noNamespaceSchemaLocation="http://sumo.dlr.de/xsd/sumoConfiguration.xsd">

    <input>
        <net-file value="./scenarios/interactive/SUMO/CHN_Sha-2_1_I-1-1/CHN_Sha-2_1_I-1-1.net.xml"/>
        <route-files value="./scenarios/interactive/SUMO/CHN_Sha-2_1_I-1-1/CHN_Sha-2_1_I-1-1.vehicles.rou.xml,./scenarios/interactive/SUMO/CHN_Sha-2_1_I-1-1/CHN_Sha-2_1_I-1-1.pedestrians.rou.xml"/>
        <additional-files value="./scenarios/interactive/SUMO/CHN_Sha-2_1_I-1-1/CHN_Sha-2_1_I-1-1.add.xml"/>
    </input>

    <output>
        <lanechange-output value="./scenarios/interactive/SUMO/CHN_Sha-2_1_I-1-1/output_lanechange.txt"/>
    </output>

    <time>
        <begin value="0"/>
        <step-length value="0.1"/>
    </time>

    <processing>
        <lateral-resolution value="0.5"/>
        <ignore-route-errors value="true"/>
        <time-to-teleport value="-1"/>
        <lanechange.duration value="0"/>
    </processing>

    <report>
        <verbose value="true"/>
        <no-step-log value="true"/>
    </report>

    <traci_server>
        <remote-port value="42809"/>
    </traci_server>

    <random_number>
        <seed value="1234"/>
    </random_number>

    <gui_only>
        <tracker-interval value="0.1"/>
    </gui_only>

</configuration>
-->

<lanechanges>
    <change id="357" type="passenger@357" time="1.80" from="853_1" to="853_0" dir="-1" speed="24.16" pos="38.22" reason="strategic|urgent" leaderGap="48.98" leaderSecureGap="41.10" leaderSpeed="18.04" followerGap="27.72" followerSecureGap="25.65" followerSpeed="24.52" origLeaderGap="None" origLeaderSecureGap="None" origLeaderSpeed="None" latGap="None"/>
    <change id="324" type="passenger@324" time="1.80" from="927_0" to="927_1" dir="1" speed="0.00" pos="160.69" reason="strategic|urgent" leaderGap="None" leaderSecureGap="None" leaderSpeed="None" followerGap="125.66" followerSecureGap="40.44" followerSpeed="18.51" origLeaderGap="None" origLeaderSecureGap="None" origLeaderSpeed="None" latGap="None"/>
    <change id="316" type="passenger@316" time="1.80" from="927_0" to="927_1" dir="1" speed="18.51" pos="30.03" reason="strategic|urgent" leaderGap="125.66" leaderSecureGap="40.44" leaderSpeed="0.00" followerGap="79.54" followerSecureGap="27.70" followerSpeed="21.07" origLeaderGap="None" origLeaderSecureGap="None" origLeaderSpeed="None" latGap="None"/>
    <change id="386" type="passenger@386" time="1.80" from="911_1" to="911_0" dir="-1" speed="4.02" pos="4.77" reason="strategic|urgent" leaderGap="17.60" leaderSecureGap="3.98" leaderSpeed="4.09" followerGap="None" followerSecureGap="None" followerSpeed="None" origLeaderGap="28.45" origLeaderSecureGap="2.42" origLeaderSpeed="6.48" latGap="None"/>
    <change id="373" type="passenger@373" time="1.80" from="891_1" to="891_0" dir="-1" speed="21.55" pos="196.24" reason="strategic|urgent" leaderGap="None" leaderSecureGap="None" leaderSpeed="None" followerGap="36.45" followerSecureGap="35.79" followerSpeed="25.06" origLeaderGap="None" origLeaderSecureGap="None" origLeaderSpeed="None" latGap="None"/>
    <change id="387" type="passenger@387" time="1.80" from="891_1" to="891_0" dir="-1" speed="21.13" pos="116.37" reason="strategic|urgent" leaderGap="33.42" leaderSecureGap="9.22" leaderSpeed="25.06" followerGap="101.60" followerSecureGap="0.00" followerSpeed="8.86" origLeaderGap="None" origLeaderSecureGap="None" origLeaderSpeed="None" latGap="None"/>
    <change id="348" type="passenger@348" time="1.80" from="841_1" to="841_0" dir="-1" speed="6.37" pos="21.51" reason="strategic|urgent" leaderGap="None" leaderSecureGap="None" leaderSpeed="None" followerGap="15.97" followerSecureGap="0.00" followerSpeed="1.45" origLeaderGap="None" origLeaderSecureGap="None" origLeaderSpeed="None" latGap="None"/>
    <change id="380" type="passenger@380" time="1.80" from="1063_1" to="1063_0" dir="-1" speed="2.57" pos="6.41" reason="strategic|urgent" leaderGap="3.77" leaderSecureGap="2.90" leaderSpeed="0.00" followerGap="9.90" followerSecureGap="0.00" followerSpeed="0.00" origLeaderGap="None" origLeaderSecureGap="None" origLeaderSpeed="None" latGap="None"/>
    <change id="335" type="passenger@335" time="1.80" from="1048_1" to="1048_0" dir="-1" speed="3.90" pos="14.54" reason="strategic|urgent" leaderGap="None" leaderSecureGap="None" leaderSpeed="None" followerGap="22.66" followerSecureGap="10.14" followerSpeed="7.55" origLeaderGap="None" origLeaderSecureGap="None" origLeaderSpeed="None" latGap="None"/>
    <change id="3108" type="passenger@3108" time="2.30" from="891_1" to="891_0" dir="-1" speed="9.93" pos="14.50" reason="strategic|urgent" leaderGap="107.75" leaderSecureGap="0.00" leaderSpeed="22.18" followerGap="None" followerSecureGap="None" followerSpeed="None" origLeaderGap="11.23" origLeaderSecureGap="0.00" origLeaderSpeed="16.05" latGap="None"/>
    <change id="3105" type="passenger@3105" time="3.80" from="911_1" to="911_0" dir="-1" speed="3.62" pos="4.55" reason="strategic|urgent" leaderGap="7.71" leaderSecureGap="0.96" leaderSpeed="7.48" followerGap="None" followerSecureGap="None" followerSpeed="None" origLeaderGap="46.19" origLeaderSecureGap="0.00" origLeaderSpeed="10.74" latGap="None"/>
    <change id="379" type="passenger@379" time="4.50" from="841_1" to="841_0" dir="-1" speed="3.14" pos="22.25" reason="strategic|urgent" leaderGap="None" leaderSecureGap="None" leaderSpeed="None" followerGap="5.56" followerSecureGap="4.97" followerSpeed="4.40" origLeaderGap="None" origLeaderSecureGap="None" origLeaderSpeed="None" latGap="None"/>
    <change id="385" type="passenger@385" time="5.00" from="838_1" to="838_0" dir="-1" speed="17.65" pos="61.38" reason="strategic|urgent" leaderGap="58.46" leaderSecureGap="35.10" leaderSpeed="6.44" followerGap="11.89" followerSecureGap="6.59" followerSpeed="14.04" origLeaderGap="None" origLeaderSecureGap="None" origLeaderSpeed="None" latGap="None"/>
    <change id="37" type="passenger@37" time="5.40" from="923_1" to="923_0" dir="-1" speed="7.73" pos="97.60" reason="strategic|urgent" leaderGap="None" leaderSecureGap="None" leaderSpeed="None" followerGap="11.15" followerSecureGap="10.99" followerSpeed="9.30" origLeaderGap="None" origLeaderSecureGap="None" origLeaderSpeed="None" latGap="None"/>
    <change id="3104" type="passenger@3104" time="5.50" from="863_1" to="863_0" dir="-1" speed="2.88" pos="15.99" reason="strategic|urgent" leaderGap="4.17" leaderSecureGap="3.28" leaderSpeed="0.90" followerGap="3.93" followerSecureGap="2.89" followerSpeed="2.89" origLeaderGap="None" origLeaderSecureGap="None" origLeaderSpeed="None" latGap="None"/>
    <change id="3111" type="passenger@3111" time="5.90" from="838_1" to="838_0" dir="-1" speed="4.45" pos="5.39" reason="strategic|urgent" leaderGap="11.59" leaderSecureGap="1.80" leaderSpeed="7.88" followerGap="None" followerSecureGap="None" followerSpeed="None" origLeaderGap="6.21" origLeaderSecureGap="1.74" origLeaderSpeed="7.94" latGap="None"/>
    <change id="390" type="passenger@390" time="6.30" from="838_1" to="838_0" dir="-1" speed="12.59" pos="38.71" reason="strategic|urgent" leaderGap="21.14" leaderSecureGap="4.29" leaderSpeed="16.91" followerGap="8.34" followerSecureGap="3.65" followerSpeed="8.83" origLeaderGap="None" origLeaderSecureGap="None" origLeaderSpeed="None" latGap="None"/>
    <change id="3100" type="passenger@3100" time="6.50" from="879_1" to="879_0" dir="-1" speed="10.57" pos="28.19" reason="strategic|urgent" leaderGap="16.96" leaderSecureGap="9.56" leaderSpeed="11.28" followerGap="8.10" followerSecureGap="4.22" followerSpeed="7.63" origLeaderGap="26.27" origLeaderSecureGap="0.63" origLeaderSpeed="16.27" latGap="None"/>
    <change id="358" type="passenger@358" time="7.90" from="996_1" to="996_0" dir="-1" speed="3.36" pos="1.81" reason="speedGain" leaderGap="4.71" leaderSecureGap="3.96" leaderSpeed="0.00" followerGap="55.56" followerSecureGap="0.00" followerSpeed="0.00" origLeaderGap="4.71" origLeaderSecureGap="3.96" origLeaderSpeed="0.00" latGap="None"/>
    <change id="345" type="passenger@345" time="8.10" from="996_1" to="996_0" dir="-1" speed="0.00" pos="11.52" reason="speedGain" leaderGap="10.93" leaderSecureGap="0.00" leaderSpeed="1.24" followerGap="4.10" followerSecureGap="3.35" followerSpeed="2.92" origLeaderGap="11.60" origLeaderSecureGap="0.00" origLeaderSpeed="1.24" latGap="None"/>
    <change id="370" type="passenger@370" time="8.50" from=":46_1_1" to=":46_1_0" dir="-1" speed="4.84" pos="4.99" reason="speedGain" leaderGap="6.76" leaderSecureGap="5.95" leaderSpeed="2.19" followerGap="45.37" followerSecureGap="0.00" followerSpeed="0.00" origLeaderGap="None" origLeaderSecureGap="None" origLeaderSpeed="None" latGap="None"/>
</lanechanges>
