<?xml version="1.0" encoding="UTF-8"?>

<!-- generated on 2021-06-23 19:51:00 by Eclipse SUMO GUI Version 1.9.2
<configuration xmlns:xsi="http://www.w3.org/2001/XMLSchema-instance" xsi:noNamespaceSchemaLocation="http://sumo.dlr.de/xsd/sumoConfiguration.xsd">

    <input>
        <net-file value="./scenarios/interactive/NGSIM/US101/USA_US101-11_1_I-1-1/USA_US101-11_1_I-1-1.net.xml"/>
        <route-files value="./scenarios/interactive/NGSIM/US101/USA_US101-11_1_I-1-1/USA_US101-11_1_I-1-1.vehicles.rou.xml,./scenarios/interactive/NGSIM/US101/USA_US101-11_1_I-1-1/USA_US101-11_1_I-1-1.pedestrians.rou.xml"/>
        <additional-files value="./scenarios/interactive/NGSIM/US101/USA_US101-11_1_I-1-1/USA_US101-11_1_I-1-1.add.xml"/>
    </input>

    <output>
        <lanechange-output value="./scenarios/interactive/NGSIM/US101/USA_US101-11_1_I-1-1/output_lanechange.txt"/>
    </output>

    <time>
        <begin value="0"/>
        <step-length value="0.1"/>
    </time>

    <processing>
        <lateral-resolution value="0.5"/>
        <ignore-route-errors value="true"/>
        <time-to-teleport value="-1"/>
        <lanechange.duration value="0"/>
    </processing>

    <report>
        <verbose value="true"/>
        <no-step-log value="true"/>
    </report>

    <traci_server>
        <remote-port value="56019"/>
    </traci_server>

    <random_number>
        <seed value="1234"/>
    </random_number>

    <gui_only>
        <tracker-interval value="0.1"/>
    </gui_only>

</configuration>
-->

<lanechanges>
    <change id="144" type="passenger@144" time="4.40" from="14_1" to="14_0" dir="-1" speed="4.01" pos="47.06" reason="cooperative|urgent" leaderGap="24.10" leaderSecureGap="0.00" leaderSpeed="12.50" followerGap="None" followerSecureGap="None" followerSpeed="None" origLeaderGap="37.36" origLeaderSecureGap="0.00" origLeaderSpeed="15.42" latGap="None"/>
    <change id="118" type="passenger@118" time="4.80" from="14_2" to="14_1" dir="-1" speed="9.45" pos="176.73" reason="strategic|urgent" leaderGap="14.94" leaderSecureGap="14.60" leaderSpeed="2.67" followerGap="10.22" followerSecureGap="9.39" followerSpeed="9.43" origLeaderGap="None" origLeaderSecureGap="None" origLeaderSpeed="None" latGap="None"/>
    <change id="115" type="passenger@115" time="4.90" from="14_3" to="14_2" dir="-1" speed="17.12" pos="122.30" reason="strategic|urgent" leaderGap="24.31" leaderSecureGap="23.70" leaderSpeed="13.84" followerGap="52.32" followerSecureGap="0.00" followerSpeed="0.00" origLeaderGap="32.27" origLeaderSecureGap="6.99" origLeaderSpeed="21.16" latGap="None"/>
    <change id="116" type="passenger@116" time="4.90" from="14_3" to="14_2" dir="-1" speed="12.35" pos="31.54" reason="strategic|urgent" leaderGap="21.70" leaderSecureGap="21.91" leaderSpeed="0.22" followerGap="None" followerSecureGap="None" followerSpeed="None" origLeaderGap="18.47" origLeaderSecureGap="3.75" origLeaderSpeed="16.88" latGap="None"/>
    <change id="132" type="passenger@132" time="6.40" from="14_2" to="14_1" dir="-1" speed="0.29" pos="58.56" reason="strategic|urgent" leaderGap="89.30" leaderSecureGap="0.00" leaderSpeed="10.53" followerGap="None" followerSecureGap="None" followerSpeed="None" origLeaderGap="1.42" origLeaderSecureGap="0.29" origLeaderSpeed="0.00" latGap="None"/>
    <change id="140" type="passenger@140" time="6.60" from="14_1" to="14_0" dir="-1" speed="12.92" pos="119.88" reason="strategic|urgent" leaderGap="18.88" leaderSecureGap="18.32" leaderSpeed="9.11" followerGap="11.77" followerSecureGap="10.91" followerSpeed="12.15" origLeaderGap="30.01" origLeaderSecureGap="17.19" origLeaderSpeed="10.03" latGap="None"/>
    <change id="116" type="passenger@116" time="8.00" from="14_2" to="14_1" dir="-1" speed="3.35" pos="51.35" reason="strategic|urgent" leaderGap="4.67" leaderSecureGap="3.41" leaderSpeed="3.21" followerGap="None" followerSecureGap="None" followerSpeed="None" origLeaderGap="8.64" origLeaderSecureGap="3.94" origLeaderSpeed="0.00" latGap="None"/>
    <change id="119" type="passenger@119" time="9.30" from="14_1" to="14_2" dir="1" speed="1.18" pos="183.64" reason="speedGain" leaderGap="None" leaderSecureGap="None" leaderSpeed="None" followerGap="12.90" followerSecureGap="6.21" followerSpeed="4.89" origLeaderGap="2.14" origLeaderSecureGap="1.23" origLeaderSpeed="0.00" latGap="None"/>
    <change id="139" type="passenger@139" time="10.00" from="14_0" to="14_1" dir="1" speed="7.78" pos="137.08" reason="speedGain" leaderGap="33.29" leaderSecureGap="11.07" leaderSpeed="2.68" followerGap="60.17" followerSecureGap="7.20" followerSpeed="7.49" origLeaderGap="9.87" origLeaderSecureGap="9.13" origLeaderSpeed="6.24" latGap="None"/>
    <change id="132" type="passenger@132" time="10.10" from="14_1" to="14_0" dir="-1" speed="7.63" pos="72.68" reason="strategic|urgent" leaderGap="24.59" leaderSecureGap="0.00" leaderSpeed="15.76" followerGap="None" followerSecureGap="None" followerSpeed="None" origLeaderGap="97.95" origLeaderSecureGap="10.84" origLeaderSpeed="2.51" latGap="None"/>
</lanechanges>
