<?xml version="1.0" encoding="UTF-8"?>

<!-- generated on 2021-06-28 23:12:11 by Eclipse SUMO GUI Version 1.9.2
<configuration xmlns:xsi="http://www.w3.org/2001/XMLSchema-instance" xsi:noNamespaceSchemaLocation="http://sumo.dlr.de/xsd/sumoConfiguration.xsd">

    <input>
        <net-file value="./scenarios/interactive/NGSIM/US101/USA_US101-11_1_I-1-1/USA_US101-11_1_I-1-1.net.xml"/>
        <route-files value="./scenarios/interactive/NGSIM/US101/USA_US101-11_1_I-1-1/USA_US101-11_1_I-1-1.vehicles.rou.xml,./scenarios/interactive/NGSIM/US101/USA_US101-11_1_I-1-1/USA_US101-11_1_I-1-1.pedestrians.rou.xml"/>
        <additional-files value="./scenarios/interactive/NGSIM/US101/USA_US101-11_1_I-1-1/USA_US101-11_1_I-1-1.add.xml"/>
    </input>

    <output>
        <lanechange-output value="./scenarios/interactive/NGSIM/US101/USA_US101-11_1_I-1-1/output_lanechange.txt"/>
    </output>

    <time>
        <begin value="0"/>
        <step-length value="0.1"/>
    </time>

    <processing>
        <lateral-resolution value="0.5"/>
        <ignore-route-errors value="true"/>
        <time-to-teleport value="-1"/>
        <lanechange.duration value="0"/>
    </processing>

    <report>
        <verbose value="true"/>
        <no-step-log value="true"/>
    </report>

    <traci_server>
        <remote-port value="44673"/>
    </traci_server>

    <random_number>
        <seed value="1234"/>
    </random_number>

    <gui_only>
        <tracker-interval value="0.1"/>
    </gui_only>

</configuration>
-->

<lanechanges>
    <change id="115" type="passenger@115" time="4.90" from="14_3" to="14_2" dir="-1" speed="17.09" pos="122.25" reason="strategic|urgent" leaderGap="24.27" leaderSecureGap="23.74" leaderSpeed="13.78" followerGap="32.13" followerSecureGap="1.39" followerSpeed="11.60" origLeaderGap="32.33" origLeaderSecureGap="6.91" origLeaderSpeed="21.16" latGap="None"/>
    <change id="116" type="passenger@116" time="4.90" from="14_3" to="14_2" dir="-1" speed="16.41" pos="33.40" reason="strategic|urgent" leaderGap="46.72" leaderSecureGap="25.15" leaderSpeed="11.60" followerGap="None" followerSecureGap="None" followerSpeed="None" origLeaderGap="16.58" origLeaderSecureGap="15.46" origLeaderSpeed="16.85" latGap="None"/>
    <change id="118" type="passenger@118" time="5.10" from="14_2" to="14_1" dir="-1" speed="8.48" pos="179.24" reason="strategic|urgent" leaderGap="13.11" leaderSecureGap="12.66" leaderSpeed="2.08" followerGap="10.10" followerSecureGap="9.38" followerSpeed="8.91" origLeaderGap="None" origLeaderSecureGap="None" origLeaderSpeed="None" latGap="None"/>
    <change id="140" type="passenger@140" time="6.20" from="14_1" to="14_0" dir="-1" speed="13.44" pos="115.49" reason="strategic|urgent" leaderGap="19.69" leaderSecureGap="18.84" leaderSpeed="9.85" followerGap="11.29" followerSecureGap="9.40" followerSpeed="11.91" origLeaderGap="30.94" origLeaderSecureGap="17.63" origLeaderSpeed="10.75" latGap="None"/>
    <change id="144" type="passenger@144" time="6.20" from="14_1" to="14_0" dir="-1" speed="11.33" pos="80.59" reason="cooperative|urgent" leaderGap="13.61" leaderSecureGap="10.47" leaderSpeed="11.91" followerGap="None" followerSecureGap="None" followerSpeed="None" origLeaderGap="65.84" origLeaderSecureGap="12.15" origLeaderSpeed="10.75" latGap="None"/>
</lanechanges>
