<?xml version="1.0" encoding="UTF-8"?>

<!-- generated on 2021-06-24 15:16:06 by Eclipse SUMO GUI Version 1.9.2
<configuration xmlns:xsi="http://www.w3.org/2001/XMLSchema-instance" xsi:noNamespaceSchemaLocation="http://sumo.dlr.de/xsd/sumoConfiguration.xsd">

    <input>
        <net-file value="./scenarios/interactive/NGSIM/US101/USA_US101-11_1_I-1-1/USA_US101-11_1_I-1-1.net.xml"/>
        <route-files value="./scenarios/interactive/NGSIM/US101/USA_US101-11_1_I-1-1/USA_US101-11_1_I-1-1.vehicles.rou.xml,./scenarios/interactive/NGSIM/US101/USA_US101-11_1_I-1-1/USA_US101-11_1_I-1-1.pedestrians.rou.xml"/>
        <additional-files value="./scenarios/interactive/NGSIM/US101/USA_US101-11_1_I-1-1/USA_US101-11_1_I-1-1.add.xml"/>
    </input>

    <output>
        <lanechange-output value="./scenarios/interactive/NGSIM/US101/USA_US101-11_1_I-1-1/output_lanechange.txt"/>
    </output>

    <time>
        <begin value="0"/>
        <step-length value="0.1"/>
    </time>

    <processing>
        <lateral-resolution value="0.5"/>
        <ignore-route-errors value="true"/>
        <time-to-teleport value="-1"/>
        <lanechange.duration value="0"/>
    </processing>

    <report>
        <verbose value="true"/>
        <no-step-log value="true"/>
    </report>

    <traci_server>
        <remote-port value="50045"/>
    </traci_server>

    <random_number>
        <seed value="1234"/>
    </random_number>

    <gui_only>
        <tracker-interval value="0.1"/>
    </gui_only>

</configuration>
-->

<lanechanges>
    <change id="135" type="passenger@135" time="3.00" from="14_1" to="14_0" dir="-1" speed="12.52" pos="80.61" reason="cooperative|urgent" leaderGap="14.38" leaderSecureGap="8.15" leaderSpeed="14.98" followerGap="34.61" followerSecureGap="0.00" followerSpeed="1.34" origLeaderGap="57.02" origLeaderSecureGap="13.82" origLeaderSpeed="11.69" latGap="None"/>
    <change id="140" type="passenger@140" time="4.50" from="14_1" to="14_0" dir="-1" speed="1.29" pos="50.83" reason="strategic|urgent" leaderGap="45.03" leaderSecureGap="0.00" leaderSpeed="13.33" followerGap="2.54" followerSecureGap="1.53" followerSpeed="1.51" origLeaderGap="9.67" origLeaderSecureGap="1.34" origLeaderSpeed="0.00" latGap="None"/>
    <change id="118" type="passenger@118" time="4.80" from="14_2" to="14_1" dir="-1" speed="9.45" pos="176.73" reason="strategic|urgent" leaderGap="14.94" leaderSecureGap="14.60" leaderSpeed="2.67" followerGap="10.22" followerSecureGap="9.31" followerSpeed="9.39" origLeaderGap="None" origLeaderSecureGap="None" origLeaderSpeed="None" latGap="None"/>
    <change id="115" type="passenger@115" time="4.90" from="14_3" to="14_2" dir="-1" speed="17.12" pos="122.30" reason="strategic|urgent" leaderGap="24.31" leaderSecureGap="23.70" leaderSpeed="13.84" followerGap="58.55" followerSecureGap="0.00" followerSpeed="0.51" origLeaderGap="32.27" origLeaderSecureGap="6.99" origLeaderSpeed="21.16" latGap="None"/>
    <change id="116" type="passenger@116" time="4.90" from="14_3" to="14_2" dir="-1" speed="12.51" pos="31.63" reason="strategic|urgent" leaderGap="22.13" leaderSecureGap="22.33" leaderSpeed="0.51" followerGap="None" followerSecureGap="None" followerSpeed="None" origLeaderGap="18.38" origLeaderSecureGap="4.18" origLeaderSpeed="16.88" latGap="None"/>
    <change id="132" type="passenger@132" time="6.40" from="14_2" to="14_1" dir="-1" speed="0.00" pos="59.06" reason="cooperative|urgent" leaderGap="1.45" leaderSecureGap="0.00" leaderSpeed="0.00" followerGap="3.86" followerSecureGap="2.85" followerSpeed="2.54" origLeaderGap="80.49" origLeaderSecureGap="0.00" origLeaderSpeed="12.93" latGap="1.21"/>
    <change id="115" type="passenger@115" time="8.00" from="14_2" to="14_1" dir="-1" speed="9.01" pos="161.94" reason="strategic|urgent" leaderGap="14.02" leaderSecureGap="13.42" leaderSpeed="3.27" followerGap="91.43" followerSecureGap="0.00" followerSpeed="0.00" origLeaderGap="23.19" origLeaderSecureGap="0.00" origLeaderSpeed="15.04" latGap="None"/>
    <change id="135" type="passenger@135" time="8.80" from="14_0" to="14_1" dir="1" speed="6.65" pos="145.01" reason="speedGain" leaderGap="40.79" leaderSecureGap="9.27" leaderSpeed="0.00" followerGap="80.95" followerSecureGap="0.00" followerSpeed="0.00" origLeaderGap="22.76" origLeaderSecureGap="8.53" origLeaderSpeed="3.73" latGap="None"/>
    <change id="119" type="passenger@119" time="9.30" from="14_1" to="14_2" dir="1" speed="1.17" pos="183.65" reason="speedGain" leaderGap="None" leaderSecureGap="None" leaderSpeed="None" followerGap="7.62" followerSecureGap="7.02" followerSpeed="5.39" origLeaderGap="2.15" origLeaderSecureGap="1.22" origLeaderSpeed="0.00" latGap="None"/>
    <change id="144" type="passenger@144" time="10.00" from="14_1" to="14_0" dir="-1" speed="0.10" pos="52.97" reason="cooperative|urgent" leaderGap="18.22" leaderSecureGap="0.00" leaderSpeed="11.55" followerGap="None" followerSecureGap="None" followerSpeed="None" origLeaderGap="1.09" origLeaderSecureGap="0.10" origLeaderSpeed="0.00" latGap="None"/>
</lanechanges>
