<?xml version="1.0" encoding="UTF-8"?>

<!-- generated on 2021-06-28 22:51:47 by Eclipse SUMO GUI Version 1.9.2
<configuration xmlns:xsi="http://www.w3.org/2001/XMLSchema-instance" xsi:noNamespaceSchemaLocation="http://sumo.dlr.de/xsd/sumoConfiguration.xsd">

    <input>
        <net-file value="./scenarios/interactive/SUMO/CHN_Sha-8_1_I-1-1/CHN_Sha-8_1_I-1-1.net.xml"/>
        <route-files value="./scenarios/interactive/SUMO/CHN_Sha-8_1_I-1-1/CHN_Sha-8_1_I-1-1.vehicles.rou.xml,./scenarios/interactive/SUMO/CHN_Sha-8_1_I-1-1/CHN_Sha-8_1_I-1-1.pedestrians.rou.xml"/>
        <additional-files value="./scenarios/interactive/SUMO/CHN_Sha-8_1_I-1-1/CHN_Sha-8_1_I-1-1.add.xml"/>
    </input>

    <output>
        <lanechange-output value="./scenarios/interactive/SUMO/CHN_Sha-8_1_I-1-1/output_lanechange.txt"/>
    </output>

    <time>
        <begin value="0"/>
        <step-length value="0.1"/>
    </time>

    <processing>
        <lateral-resolution value="0.5"/>
        <ignore-route-errors value="true"/>
        <time-to-teleport value="-1"/>
        <lanechange.duration value="0"/>
    </processing>

    <report>
        <verbose value="true"/>
        <no-step-log value="true"/>
    </report>

    <traci_server>
        <remote-port value="38295"/>
    </traci_server>

    <random_number>
        <seed value="1234"/>
    </random_number>

    <gui_only>
        <tracker-interval value="0.1"/>
    </gui_only>

</configuration>
