<?xml version="1.0" encoding="UTF-8"?>

<!-- generated on 2021-06-18 15:56:43 by Eclipse SUMO sumo Version v1_9_2+0074-09b41fdc2d
<configuration xmlns:xsi="http://www.w3.org/2001/XMLSchema-instance" xsi:noNamespaceSchemaLocation="http://sumo.dlr.de/xsd/sumoConfiguration.xsd">

    <input>
        <net-file value="./commonroad-scenarios/scenarios/interactive/NGSIM/US101/USA_US101-26_2_I-1-1/USA_US101-26_2_I-1-1.net.xml"/>
        <route-files value="./commonroad-scenarios/scenarios/interactive/NGSIM/US101/USA_US101-26_2_I-1-1/USA_US101-26_2_I-1-1.vehicles.rou.xml,./commonroad-scenarios/scenarios/interactive/NGSIM/US101/USA_US101-26_2_I-1-1/USA_US101-26_2_I-1-1.pedestrians.rou.xml"/>
        <additional-files value="./commonroad-scenarios/scenarios/interactive/NGSIM/US101/USA_US101-26_2_I-1-1/USA_US101-26_2_I-1-1.add.xml"/>
    </input>

    <output>
        <lanechange-output value="./commonroad-scenarios/scenarios/interactive/NGSIM/US101/USA_US101-26_2_I-1-1/output_lanechange.txt"/>
    </output>

    <time>
        <begin value="0"/>
        <step-length value="0.1"/>
    </time>

    <processing>
        <lateral-resolution value="0.5"/>
        <ignore-route-errors value="true"/>
        <collision.check-junctions value="true"/>
        <time-to-teleport value="-1"/>
        <lanechange.duration value="0"/>
    </processing>

    <report>
        <verbose value="true"/>
        <no-step-log value="true"/>
    </report>

    <traci_server>
        <remote-port value="39653"/>
    </traci_server>

    <random_number>
        <seed value="1234"/>
    </random_number>

    <gui_only>
        <tracker-interval value="0.1"/>
    </gui_only>

</configuration>
