<?xml version="1.0" encoding="UTF-8"?>

<!-- generated on 2021-07-07 15:02:38 by Eclipse SUMO GUI Version 1.9.2
<configuration xmlns:xsi="http://www.w3.org/2001/XMLSchema-instance" xsi:noNamespaceSchemaLocation="http://sumo.dlr.de/xsd/sumoConfiguration.xsd">

    <input>
        <net-file value="./scenarios/interactive/NGSIM/US101/USA_US101-11_3_I-1-1/USA_US101-11_3_I-1-1.net.xml"/>
        <route-files value="./scenarios/interactive/NGSIM/US101/USA_US101-11_3_I-1-1/USA_US101-11_3_I-1-1.vehicles.rou.xml,./scenarios/interactive/NGSIM/US101/USA_US101-11_3_I-1-1/USA_US101-11_3_I-1-1.pedestrians.rou.xml"/>
        <additional-files value="./scenarios/interactive/NGSIM/US101/USA_US101-11_3_I-1-1/USA_US101-11_3_I-1-1.add.xml"/>
    </input>

    <output>
        <lanechange-output value="./scenarios/interactive/NGSIM/US101/USA_US101-11_3_I-1-1/output_lanechange.txt"/>
    </output>

    <time>
        <begin value="0"/>
        <step-length value="0.1"/>
    </time>

    <processing>
        <lateral-resolution value="0.5"/>
        <ignore-route-errors value="true"/>
        <time-to-teleport value="-1"/>
        <lanechange.duration value="0"/>
    </processing>

    <report>
        <verbose value="true"/>
        <no-step-log value="true"/>
    </report>

    <traci_server>
        <remote-port value="53205"/>
    </traci_server>

    <random_number>
        <seed value="1234"/>
    </random_number>

    <gui_only>
        <tracker-interval value="0.1"/>
    </gui_only>

</configuration>
-->

<lanechanges>
    <change id="115" type="passenger@115" time="4.90" from="14_3" to="14_2" dir="-1" speed="17.09" pos="122.25" reason="strategic|urgent" leaderGap="24.27" leaderSecureGap="23.74" leaderSpeed="13.78" followerGap="32.13" followerSecureGap="1.39" followerSpeed="11.60" origLeaderGap="32.33" origLeaderSecureGap="6.91" origLeaderSpeed="21.16" latGap="None"/>
    <change id="116" type="passenger@116" time="4.90" from="14_3" to="14_2" dir="-1" speed="16.41" pos="33.40" reason="strategic|urgent" leaderGap="46.72" leaderSecureGap="25.15" leaderSpeed="11.60" followerGap="None" followerSecureGap="None" followerSpeed="None" origLeaderGap="16.58" origLeaderSecureGap="15.46" origLeaderSpeed="16.85" latGap="None"/>
    <change id="118" type="passenger@118" time="5.10" from="14_2" to="14_1" dir="-1" speed="8.48" pos="179.24" reason="strategic|urgent" leaderGap="13.11" leaderSecureGap="12.66" leaderSpeed="2.08" followerGap="10.10" followerSecureGap="9.38" followerSpeed="8.91" origLeaderGap="None" origLeaderSecureGap="None" origLeaderSpeed="None" latGap="None"/>
    <change id="140" type="passenger@140" time="6.20" from="14_1" to="14_0" dir="-1" speed="13.44" pos="115.49" reason="strategic|urgent" leaderGap="19.69" leaderSecureGap="18.84" leaderSpeed="9.85" followerGap="11.29" followerSecureGap="9.40" followerSpeed="11.91" origLeaderGap="30.94" origLeaderSecureGap="17.63" origLeaderSpeed="10.75" latGap="None"/>
    <change id="144" type="passenger@144" time="6.20" from="14_1" to="14_0" dir="-1" speed="11.33" pos="80.59" reason="cooperative|urgent" leaderGap="13.61" leaderSecureGap="10.47" leaderSpeed="11.91" followerGap="None" followerSecureGap="None" followerSpeed="None" origLeaderGap="65.84" origLeaderSecureGap="12.15" origLeaderSpeed="10.75" latGap="None"/>
    <change id="132" type="passenger@132" time="7.80" from="14_2" to="14_1" dir="-1" speed="13.97" pos="120.49" reason="strategic|urgent" leaderGap="40.02" leaderSecureGap="23.26" leaderSpeed="7.12" followerGap="None" followerSecureGap="None" followerSpeed="None" origLeaderGap="31.04" origLeaderSecureGap="22.47" origLeaderSpeed="7.95" latGap="None"/>
    <change id="116" type="passenger@116" time="9.30" from="14_2" to="14_1" dir="-1" speed="16.79" pos="107.32" reason="strategic|urgent" leaderGap="27.37" leaderSecureGap="26.80" leaderSpeed="11.31" followerGap="None" followerSecureGap="None" followerSpeed="None" origLeaderGap="53.76" origLeaderSecureGap="33.34" origLeaderSpeed="5.00" latGap="None"/>
    <change id="119" type="passenger@119" time="9.40" from="14_1" to="14_2" dir="1" speed="1.11" pos="184.08" reason="speedGain" leaderGap="None" leaderSecureGap="None" leaderSpeed="None" followerGap="12.52" followerSecureGap="6.08" followerSpeed="4.81" origLeaderGap="2.05" origLeaderSecureGap="1.15" origLeaderSpeed="0.00" latGap="None"/>
    <change id="115" type="passenger@115" time="13.50" from="14_2" to="14_1" dir="-1" speed="0.68" pos="176.33" reason="strategic|urgent" leaderGap="3.17" leaderSecureGap="0.68" leaderSpeed="0.68" followerGap="5.03" followerSecureGap="2.30" followerSpeed="2.11" origLeaderGap="17.29" origLeaderSecureGap="0.00" origLeaderSpeed="7.69" latGap="None"/>
    <change id="135" type="passenger@135" time="13.70" from="14_1" to="14_2" dir="1" speed="0.54" pos="184.61" reason="speedGain" leaderGap="10.62" leaderSecureGap="0.00" leaderSpeed="8.12" followerGap="3.17" followerSecureGap="0.49" followerSpeed="0.49" origLeaderGap="1.52" origLeaderSecureGap="0.54" origLeaderSpeed="0.00" latGap="None"/>
    <change id="119" type="passenger@119" time="14.50" from="14_2" to="14_3" dir="1" speed="9.81" pos="207.45" reason="speedGain" leaderGap="None" leaderSecureGap="None" leaderSpeed="None" followerGap="None" followerSecureGap="None" followerSpeed="None" origLeaderGap="None" origLeaderSecureGap="None" origLeaderSpeed="None" latGap="None"/>
    <change id="144" type="passenger@144" time="16.10" from="14_0" to="14_1" dir="1" speed="2.01" pos="152.01" reason="speedGain" leaderGap="5.28" leaderSecureGap="2.05" leaderSpeed="1.78" followerGap="None" followerSecureGap="None" followerSpeed="None" origLeaderGap="3.07" origLeaderSecureGap="2.15" origLeaderSpeed="1.04" latGap="None"/>
    <change id="144" type="passenger@144" time="18.10" from="14_1" to="14_0" dir="-1" speed="0.72" pos="154.53" reason="cooperative|urgent" leaderGap="1.70" leaderSecureGap="0.72" leaderSpeed="0.26" followerGap="None" followerSecureGap="None" followerSpeed="None" origLeaderGap="4.56" origLeaderSecureGap="0.72" origLeaderSpeed="0.37" latGap="None"/>
    <change id="144" type="passenger@144" time="23.00" from="14_0" to="14_1" dir="1" speed="0.02" pos="155.50" reason="speedGain" leaderGap="3.98" leaderSecureGap="0.02" leaderSpeed="0.00" followerGap="None" followerSecureGap="None" followerSpeed="None" origLeaderGap="1.02" origLeaderSecureGap="0.02" origLeaderSpeed="0.00" latGap="None"/>
</lanechanges>
