<?xml version="1.0" encoding="UTF-8"?>

<!-- generated on 2021-06-28 21:57:09 by Eclipse SUMO GUI Version 1.9.2
<configuration xmlns:xsi="http://www.w3.org/2001/XMLSchema-instance" xsi:noNamespaceSchemaLocation="http://sumo.dlr.de/xsd/sumoConfiguration.xsd">

    <input>
        <net-file value="./scenarios/interactive/NGSIM/US101/USA_US101-14_2_I-1-1/USA_US101-14_2_I-1-1.net.xml"/>
        <route-files value="./scenarios/interactive/NGSIM/US101/USA_US101-14_2_I-1-1/USA_US101-14_2_I-1-1.vehicles.rou.xml,./scenarios/interactive/NGSIM/US101/USA_US101-14_2_I-1-1/USA_US101-14_2_I-1-1.pedestrians.rou.xml"/>
        <additional-files value="./scenarios/interactive/NGSIM/US101/USA_US101-14_2_I-1-1/USA_US101-14_2_I-1-1.add.xml"/>
    </input>

    <output>
        <lanechange-output value="./scenarios/interactive/NGSIM/US101/USA_US101-14_2_I-1-1/output_lanechange.txt"/>
    </output>

    <time>
        <begin value="0"/>
        <step-length value="0.1"/>
    </time>

    <processing>
        <lateral-resolution value="0.5"/>
        <ignore-route-errors value="true"/>
        <time-to-teleport value="-1"/>
        <lanechange.duration value="0"/>
    </processing>

    <report>
        <verbose value="true"/>
        <no-step-log value="true"/>
    </report>

    <traci_server>
        <remote-port value="42785"/>
    </traci_server>

    <random_number>
        <seed value="1234"/>
    </random_number>

    <gui_only>
        <tracker-interval value="0.1"/>
    </gui_only>

</configuration>
-->

<lanechanges>
    <change id="31" type="passenger@31" time="3.00" from="73_1" to="73_0" dir="-1" speed="20.53" pos="111.62" reason="strategic|urgent" leaderGap="None" leaderSecureGap="None" leaderSpeed="None" followerGap="17.31" followerSecureGap="15.53" followerSpeed="19.14" origLeaderGap="None" origLeaderSecureGap="None" origLeaderSpeed="None" latGap="None"/>
</lanechanges>
