<?xml version="1.0" encoding="UTF-8"?>

<!-- generated on 2021-06-28 20:57:56 by Eclipse SUMO GUI Version 1.9.2
<configuration xmlns:xsi="http://www.w3.org/2001/XMLSchema-instance" xsi:noNamespaceSchemaLocation="http://sumo.dlr.de/xsd/sumoConfiguration.xsd">

    <input>
        <net-file value="./scenarios/interactive/SUMO/CHN_Cho-1_4_I-1-1/CHN_Cho-1_4_I-1-1.net.xml"/>
        <route-files value="./scenarios/interactive/SUMO/CHN_Cho-1_4_I-1-1/CHN_Cho-1_4_I-1-1.vehicles.rou.xml,./scenarios/interactive/SUMO/CHN_Cho-1_4_I-1-1/CHN_Cho-1_4_I-1-1.pedestrians.rou.xml"/>
        <additional-files value="./scenarios/interactive/SUMO/CHN_Cho-1_4_I-1-1/CHN_Cho-1_4_I-1-1.add.xml"/>
    </input>

    <output>
        <lanechange-output value="./scenarios/interactive/SUMO/CHN_Cho-1_4_I-1-1/output_lanechange.txt"/>
    </output>

    <time>
        <begin value="0"/>
        <step-length value="0.1"/>
    </time>

    <processing>
        <lateral-resolution value="0.5"/>
        <ignore-route-errors value="true"/>
        <time-to-teleport value="-1"/>
        <lanechange.duration value="0"/>
    </processing>

    <report>
        <verbose value="true"/>
        <no-step-log value="true"/>
    </report>

    <traci_server>
        <remote-port value="42753"/>
    </traci_server>

    <random_number>
        <seed value="1234"/>
    </random_number>

    <gui_only>
        <tracker-interval value="0.1"/>
    </gui_only>

</configuration>
-->

<lanechanges>
    <change id="37" type="passenger@37" time="5.10" from="233_1" to="233_0" dir="-1" speed="18.56" pos="88.22" reason="strategic|urgent" leaderGap="12.11" leaderSecureGap="0.00" leaderSpeed="26.03" followerGap="21.94" followerSecureGap="15.94" followerSpeed="17.78" origLeaderGap="444.82" origLeaderSecureGap="0.00" origLeaderSpeed="33.79" latGap="None"/>
    <change id="316" type="passenger@316" time="6.20" from="233_1" to="233_0" dir="-1" speed="9.29" pos="19.64" reason="strategic|urgent" leaderGap="26.62" leaderSecureGap="0.21" leaderSpeed="15.06" followerGap="None" followerSecureGap="None" followerSpeed="None" origLeaderGap="15.25" origLeaderSecureGap="2.68" origLeaderSpeed="13.73" latGap="None"/>
</lanechanges>
